  Página 1                      Viernes 06 Junio 2014 a las 11:59:07
  ******************************************************************
  *                           E P A N E T                          *
  *                  Análisis Hidráulico y de Calidad              *
  *                 para Redes de Distribución de Agua             *
  *                           Version 2.0                          *
  *                                                                *
  * Trad.español: Grupo REDHISP,UPV   Financ: G. Aguas de Valencia *
  ******************************************************************
  
  Día y hora de comienzo del análisis: Viernes 06 Junio 2014 a las 11:59:07
   
  Estado Hidráulico:
  -----------------------------------------------------------------------
   0:00:00: Proceso de equilibrado del sistema:
            Iteración  1: variación relativa de caudal = 0.000032
   0:00:00: Sistema equilibrado tras 1 iteración
   0:00:00: El nivel en el depósito tank0 es de 9.00 ft y se ha cerrado
   
   0:05:00: Proceso de equilibrado del sistema:
            Iteración  1: variación relativa de caudal = 0.000000
   0:05:00: Sistema equilibrado tras 1 iteración
   
   0:10:00: Proceso de equilibrado del sistema:
            Iteración  1: variación relativa de caudal = 0.000000
   0:10:00: Sistema equilibrado tras 1 iteración
   
   0:15:00: Proceso de equilibrado del sistema:
            Iteración  1: variación relativa de caudal = 0.000000
   0:15:00: Sistema equilibrado tras 1 iteración
   
   0:20:00: Proceso de equilibrado del sistema:
            Iteración  1: variación relativa de caudal = 0.000000
   0:20:00: Sistema equilibrado tras 1 iteración
   
   0:25:00: Proceso de equilibrado del sistema:
            Iteración  1: variación relativa de caudal = 0.000000
   0:25:00: Sistema equilibrado tras 1 iteración
   
   0:30:00: Proceso de equilibrado del sistema:
            Iteración  1: variación relativa de caudal = 0.000000
   0:30:00: Sistema equilibrado tras 1 iteración
   
   0:35:00: Proceso de equilibrado del sistema:
            Iteración  1: variación relativa de caudal = 0.000000
   0:35:00: Sistema equilibrado tras 1 iteración
   
   0:40:00: Proceso de equilibrado del sistema:
            Iteración  1: variación relativa de caudal = 0.000000
   0:40:00: Sistema equilibrado tras 1 iteración
   
   0:45:00: Proceso de equilibrado del sistema:
            Iteración  1: variación relativa de caudal = 0.000000
   0:45:00: Sistema equilibrado tras 1 iteración
   
   0:50:00: Proceso de equilibrado del sistema:
            Iteración  1: variación relativa de caudal = 0.000000
   0:50:00: Sistema equilibrado tras 1 iteración
   
   0:55:00: Proceso de equilibrado del sistema:
            Iteración  1: variación relativa de caudal = 0.000000
   0:55:00: Sistema equilibrado tras 1 iteración
   
   1:00:00: Proceso de equilibrado del sistema:
            Iteración  1: variación relativa de caudal = 0.000000
   1:00:00: Sistema equilibrado tras 1 iteración
   
   1:05:00: Proceso de equilibrado del sistema:
            Iteración  1: variación relativa de caudal = 0.000000
   1:05:00: Sistema equilibrado tras 1 iteración
   
   1:10:00: Proceso de equilibrado del sistema:
            Iteración  1: variación relativa de caudal = 0.000000
   1:10:00: Sistema equilibrado tras 1 iteración
   
   1:15:00: Proceso de equilibrado del sistema:
            Iteración  1: variación relativa de caudal = 0.000000
   1:15:00: Sistema equilibrado tras 1 iteración
   
   1:20:00: Proceso de equilibrado del sistema:
            Iteración  1: variación relativa de caudal = 0.000000
   1:20:00: Sistema equilibrado tras 1 iteración
   
   1:25:00: Proceso de equilibrado del sistema:
            Iteración  1: variación relativa de caudal = 0.000000
   1:25:00: Sistema equilibrado tras 1 iteración
   
   1:30:00: Proceso de equilibrado del sistema:
            Iteración  1: variación relativa de caudal = 0.000000
   1:30:00: Sistema equilibrado tras 1 iteración
   
   1:35:00: Proceso de equilibrado del sistema:
            Iteración  1: variación relativa de caudal = 0.000000
   1:35:00: Sistema equilibrado tras 1 iteración
   
   1:40:00: Proceso de equilibrado del sistema:
            Iteración  1: variación relativa de caudal = 0.000000
   1:40:00: Sistema equilibrado tras 1 iteración
   
   1:45:00: Proceso de equilibrado del sistema:
            Iteración  1: variación relativa de caudal = 0.000000
   1:45:00: Sistema equilibrado tras 1 iteración
   
   1:50:00: Proceso de equilibrado del sistema:
            Iteración  1: variación relativa de caudal = 0.000000
   1:50:00: Sistema equilibrado tras 1 iteración
   
   1:55:00: Proceso de equilibrado del sistema:
            Iteración  1: variación relativa de caudal = 0.000000
   1:55:00: Sistema equilibrado tras 1 iteración
   
   2:00:00: Proceso de equilibrado del sistema:
            Iteración  1: variación relativa de caudal = 0.000000
   2:00:00: Sistema equilibrado tras 1 iteración
   
   2:05:00: Proceso de equilibrado del sistema:
            Iteración  1: variación relativa de caudal = 0.000000
   2:05:00: Sistema equilibrado tras 1 iteración
   
   2:10:00: Proceso de equilibrado del sistema:
            Iteración  1: variación relativa de caudal = 0.000000
   2:10:00: Sistema equilibrado tras 1 iteración
   
   2:15:00: Proceso de equilibrado del sistema:
            Iteración  1: variación relativa de caudal = 0.000000
   2:15:00: Sistema equilibrado tras 1 iteración
   
   2:20:00: Proceso de equilibrado del sistema:
            Iteración  1: variación relativa de caudal = 0.000000
   2:20:00: Sistema equilibrado tras 1 iteración
   
   2:25:00: Proceso de equilibrado del sistema:
            Iteración  1: variación relativa de caudal = 0.000000
   2:25:00: Sistema equilibrado tras 1 iteración
   
   2:30:00: Proceso de equilibrado del sistema:
            Iteración  1: variación relativa de caudal = 0.000000
   2:30:00: Sistema equilibrado tras 1 iteración
   
   2:35:00: Proceso de equilibrado del sistema:
            Iteración  1: variación relativa de caudal = 0.000000
   2:35:00: Sistema equilibrado tras 1 iteración
   
   2:40:00: Proceso de equilibrado del sistema:
            Iteración  1: variación relativa de caudal = 0.000000
   2:40:00: Sistema equilibrado tras 1 iteración
   
   2:45:00: Proceso de equilibrado del sistema:
            Iteración  1: variación relativa de caudal = 0.000000
   2:45:00: Sistema equilibrado tras 1 iteración
   
   2:50:00: Proceso de equilibrado del sistema:
            Iteración  1: variación relativa de caudal = 0.000000
   2:50:00: Sistema equilibrado tras 1 iteración
   
   2:55:00: Proceso de equilibrado del sistema:
            Iteración  1: variación relativa de caudal = 0.000000
   2:55:00: Sistema equilibrado tras 1 iteración
   
   3:00:00: Proceso de equilibrado del sistema:
            Iteración  1: variación relativa de caudal = 0.000000
   3:00:00: Sistema equilibrado tras 1 iteración
   
   3:05:00: Proceso de equilibrado del sistema:
            Iteración  1: variación relativa de caudal = 0.000000
   3:05:00: Sistema equilibrado tras 1 iteración
   
   3:10:00: Proceso de equilibrado del sistema:
            Iteración  1: variación relativa de caudal = 0.000000
   3:10:00: Sistema equilibrado tras 1 iteración
   
   3:15:00: Proceso de equilibrado del sistema:
            Iteración  1: variación relativa de caudal = 0.000000
   3:15:00: Sistema equilibrado tras 1 iteración
   
   3:20:00: Proceso de equilibrado del sistema:
            Iteración  1: variación relativa de caudal = 0.000000
   3:20:00: Sistema equilibrado tras 1 iteración
   
   3:25:00: Proceso de equilibrado del sistema:
            Iteración  1: variación relativa de caudal = 0.000000
   3:25:00: Sistema equilibrado tras 1 iteración
   
   3:30:00: Proceso de equilibrado del sistema:
            Iteración  1: variación relativa de caudal = 0.000000
   3:30:00: Sistema equilibrado tras 1 iteración
   
   3:35:00: Proceso de equilibrado del sistema:
            Iteración  1: variación relativa de caudal = 0.000000
   3:35:00: Sistema equilibrado tras 1 iteración
   
   3:40:00: Proceso de equilibrado del sistema:
            Iteración  1: variación relativa de caudal = 0.000000
   3:40:00: Sistema equilibrado tras 1 iteración
   
   3:45:00: Proceso de equilibrado del sistema:
            Iteración  1: variación relativa de caudal = 0.000000
   3:45:00: Sistema equilibrado tras 1 iteración
   
   3:50:00: Proceso de equilibrado del sistema:
            Iteración  1: variación relativa de caudal = 0.000000
   3:50:00: Sistema equilibrado tras 1 iteración
   
   3:55:00: Proceso de equilibrado del sistema:
            Iteración  1: variación relativa de caudal = 0.000000
   3:55:00: Sistema equilibrado tras 1 iteración
   
   4:00:00: Proceso de equilibrado del sistema:
            Iteración  1: variación relativa de caudal = 0.000000
   4:00:00: Sistema equilibrado tras 1 iteración
   
   4:05:00: Proceso de equilibrado del sistema:
            Iteración  1: variación relativa de caudal = 0.000000
   4:05:00: Sistema equilibrado tras 1 iteración
   
   4:10:00: Proceso de equilibrado del sistema:
            Iteración  1: variación relativa de caudal = 0.000000
   4:10:00: Sistema equilibrado tras 1 iteración
   
   4:15:00: Proceso de equilibrado del sistema:
            Iteración  1: variación relativa de caudal = 0.000000
   4:15:00: Sistema equilibrado tras 1 iteración
   
   4:20:00: Proceso de equilibrado del sistema:
            Iteración  1: variación relativa de caudal = 0.000000
   4:20:00: Sistema equilibrado tras 1 iteración
   
   4:25:00: Proceso de equilibrado del sistema:
            Iteración  1: variación relativa de caudal = 0.000000
   4:25:00: Sistema equilibrado tras 1 iteración
   
   4:30:00: Proceso de equilibrado del sistema:
            Iteración  1: variación relativa de caudal = 0.000000
   4:30:00: Sistema equilibrado tras 1 iteración
   
   4:35:00: Proceso de equilibrado del sistema:
            Iteración  1: variación relativa de caudal = 0.000000
   4:35:00: Sistema equilibrado tras 1 iteración
   
   4:40:00: Proceso de equilibrado del sistema:
            Iteración  1: variación relativa de caudal = 0.000000
   4:40:00: Sistema equilibrado tras 1 iteración
   
   4:45:00: Proceso de equilibrado del sistema:
            Iteración  1: variación relativa de caudal = 0.000000
   4:45:00: Sistema equilibrado tras 1 iteración
   
   4:50:00: Proceso de equilibrado del sistema:
            Iteración  1: variación relativa de caudal = 0.000000
   4:50:00: Sistema equilibrado tras 1 iteración
   
   4:55:00: Proceso de equilibrado del sistema:
            Iteración  1: variación relativa de caudal = 0.000000
   4:55:00: Sistema equilibrado tras 1 iteración
   
   5:00:00: Proceso de equilibrado del sistema:
            Iteración  1: variación relativa de caudal = 0.000000
   5:00:00: Sistema equilibrado tras 1 iteración
   
   5:05:00: Proceso de equilibrado del sistema:
            Iteración  1: variación relativa de caudal = 0.000000
   5:05:00: Sistema equilibrado tras 1 iteración
   
   5:10:00: Proceso de equilibrado del sistema:
            Iteración  1: variación relativa de caudal = 0.000000
   5:10:00: Sistema equilibrado tras 1 iteración
   
   5:15:00: Proceso de equilibrado del sistema:
            Iteración  1: variación relativa de caudal = 0.000000
   5:15:00: Sistema equilibrado tras 1 iteración
   
   5:20:00: Proceso de equilibrado del sistema:
            Iteración  1: variación relativa de caudal = 0.000000
   5:20:00: Sistema equilibrado tras 1 iteración
   
   5:25:00: Proceso de equilibrado del sistema:
            Iteración  1: variación relativa de caudal = 0.000000
   5:25:00: Sistema equilibrado tras 1 iteración
   
   5:30:00: Proceso de equilibrado del sistema:
            Iteración  1: variación relativa de caudal = 0.000000
   5:30:00: Sistema equilibrado tras 1 iteración
   
   5:35:00: Proceso de equilibrado del sistema:
            Iteración  1: variación relativa de caudal = 0.000000
   5:35:00: Sistema equilibrado tras 1 iteración
   
   5:40:00: Proceso de equilibrado del sistema:
            Iteración  1: variación relativa de caudal = 0.000000
   5:40:00: Sistema equilibrado tras 1 iteración
   
   5:45:00: Proceso de equilibrado del sistema:
            Iteración  1: variación relativa de caudal = 0.000000
   5:45:00: Sistema equilibrado tras 1 iteración
   
   5:50:00: Proceso de equilibrado del sistema:
            Iteración  1: variación relativa de caudal = 0.000000
   5:50:00: Sistema equilibrado tras 1 iteración
   
   5:55:00: Proceso de equilibrado del sistema:
            Iteración  1: variación relativa de caudal = 0.000000
   5:55:00: Sistema equilibrado tras 1 iteración
   
   6:00:00: Proceso de equilibrado del sistema:
            Iteración  1: variación relativa de caudal = 0.000000
   6:00:00: Sistema equilibrado tras 1 iteración
   
   6:05:00: Proceso de equilibrado del sistema:
            Iteración  1: variación relativa de caudal = 0.000000
   6:05:00: Sistema equilibrado tras 1 iteración
   
   6:10:00: Proceso de equilibrado del sistema:
            Iteración  1: variación relativa de caudal = 0.000000
   6:10:00: Sistema equilibrado tras 1 iteración
   
   6:15:00: Proceso de equilibrado del sistema:
            Iteración  1: variación relativa de caudal = 0.000000
   6:15:00: Sistema equilibrado tras 1 iteración
   
   6:20:00: Proceso de equilibrado del sistema:
            Iteración  1: variación relativa de caudal = 0.000000
   6:20:00: Sistema equilibrado tras 1 iteración
   
   6:25:00: Proceso de equilibrado del sistema:
            Iteración  1: variación relativa de caudal = 0.000000
   6:25:00: Sistema equilibrado tras 1 iteración
   
   6:30:00: Proceso de equilibrado del sistema:
            Iteración  1: variación relativa de caudal = 0.000000
   6:30:00: Sistema equilibrado tras 1 iteración
   
   6:35:00: Proceso de equilibrado del sistema:
            Iteración  1: variación relativa de caudal = 0.000000
   6:35:00: Sistema equilibrado tras 1 iteración
   
   6:40:00: Proceso de equilibrado del sistema:
            Iteración  1: variación relativa de caudal = 0.000000
   6:40:00: Sistema equilibrado tras 1 iteración
   
   6:45:00: Proceso de equilibrado del sistema:
            Iteración  1: variación relativa de caudal = 0.000000
   6:45:00: Sistema equilibrado tras 1 iteración
   
   6:50:00: Proceso de equilibrado del sistema:
            Iteración  1: variación relativa de caudal = 0.000000
   6:50:00: Sistema equilibrado tras 1 iteración
   
   6:55:00: Proceso de equilibrado del sistema:
            Iteración  1: variación relativa de caudal = 0.000000
   6:55:00: Sistema equilibrado tras 1 iteración
   
   7:00:00: Proceso de equilibrado del sistema:
            Iteración  1: variación relativa de caudal = 0.000000
   7:00:00: Sistema equilibrado tras 1 iteración
   
   7:05:00: Proceso de equilibrado del sistema:
            Iteración  1: variación relativa de caudal = 0.000000
   7:05:00: Sistema equilibrado tras 1 iteración
   
   7:10:00: Proceso de equilibrado del sistema:
            Iteración  1: variación relativa de caudal = 0.000000
   7:10:00: Sistema equilibrado tras 1 iteración
   
   7:15:00: Proceso de equilibrado del sistema:
            Iteración  1: variación relativa de caudal = 0.000000
   7:15:00: Sistema equilibrado tras 1 iteración
   
   7:20:00: Proceso de equilibrado del sistema:
            Iteración  1: variación relativa de caudal = 0.000000
   7:20:00: Sistema equilibrado tras 1 iteración
   
   7:25:00: Proceso de equilibrado del sistema:
            Iteración  1: variación relativa de caudal = 0.000000
   7:25:00: Sistema equilibrado tras 1 iteración
   
   7:30:00: Proceso de equilibrado del sistema:
            Iteración  1: variación relativa de caudal = 0.000000
   7:30:00: Sistema equilibrado tras 1 iteración
   
   7:35:00: Proceso de equilibrado del sistema:
            Iteración  1: variación relativa de caudal = 0.000000
   7:35:00: Sistema equilibrado tras 1 iteración
   
   7:40:00: Proceso de equilibrado del sistema:
            Iteración  1: variación relativa de caudal = 0.000000
   7:40:00: Sistema equilibrado tras 1 iteración
   
   7:45:00: Proceso de equilibrado del sistema:
            Iteración  1: variación relativa de caudal = 0.000000
   7:45:00: Sistema equilibrado tras 1 iteración
   
   7:50:00: Proceso de equilibrado del sistema:
            Iteración  1: variación relativa de caudal = 0.000000
   7:50:00: Sistema equilibrado tras 1 iteración
   
   7:55:00: Proceso de equilibrado del sistema:
            Iteración  1: variación relativa de caudal = 0.000000
   7:55:00: Sistema equilibrado tras 1 iteración
   
   8:00:00: Proceso de equilibrado del sistema:
            Iteración  1: variación relativa de caudal = 0.000000
   8:00:00: Sistema equilibrado tras 1 iteración
   
   8:05:00: Proceso de equilibrado del sistema:
            Iteración  1: variación relativa de caudal = 0.000000
   8:05:00: Sistema equilibrado tras 1 iteración
   
   8:10:00: Proceso de equilibrado del sistema:
            Iteración  1: variación relativa de caudal = 0.000000
   8:10:00: Sistema equilibrado tras 1 iteración
   
   8:15:00: Proceso de equilibrado del sistema:
            Iteración  1: variación relativa de caudal = 0.000000
   8:15:00: Sistema equilibrado tras 1 iteración
   
   8:20:00: Proceso de equilibrado del sistema:
            Iteración  1: variación relativa de caudal = 0.000000
   8:20:00: Sistema equilibrado tras 1 iteración
   
   8:25:00: Proceso de equilibrado del sistema:
            Iteración  1: variación relativa de caudal = 0.000000
   8:25:00: Sistema equilibrado tras 1 iteración
   
   8:30:00: Proceso de equilibrado del sistema:
            Iteración  1: variación relativa de caudal = 0.000000
   8:30:00: Sistema equilibrado tras 1 iteración
   
   8:35:00: Proceso de equilibrado del sistema:
            Iteración  1: variación relativa de caudal = 0.000000
   8:35:00: Sistema equilibrado tras 1 iteración
   
   8:40:00: Proceso de equilibrado del sistema:
            Iteración  1: variación relativa de caudal = 0.000000
   8:40:00: Sistema equilibrado tras 1 iteración
   
   8:45:00: Proceso de equilibrado del sistema:
            Iteración  1: variación relativa de caudal = 0.000000
   8:45:00: Sistema equilibrado tras 1 iteración
   
   8:50:00: Proceso de equilibrado del sistema:
            Iteración  1: variación relativa de caudal = 0.000000
   8:50:00: Sistema equilibrado tras 1 iteración
   
   8:55:00: Proceso de equilibrado del sistema:
            Iteración  1: variación relativa de caudal = 0.000000
   8:55:00: Sistema equilibrado tras 1 iteración
   
   9:00:00: Proceso de equilibrado del sistema:
            Iteración  1: variación relativa de caudal = 0.000000
   9:00:00: Sistema equilibrado tras 1 iteración
   
   9:05:00: Proceso de equilibrado del sistema:
            Iteración  1: variación relativa de caudal = 0.000000
   9:05:00: Sistema equilibrado tras 1 iteración
   
   9:10:00: Proceso de equilibrado del sistema:
            Iteración  1: variación relativa de caudal = 0.000000
   9:10:00: Sistema equilibrado tras 1 iteración
   
   9:15:00: Proceso de equilibrado del sistema:
            Iteración  1: variación relativa de caudal = 0.000000
   9:15:00: Sistema equilibrado tras 1 iteración
   
   9:20:00: Proceso de equilibrado del sistema:
            Iteración  1: variación relativa de caudal = 0.000000
   9:20:00: Sistema equilibrado tras 1 iteración
   
   9:25:00: Proceso de equilibrado del sistema:
            Iteración  1: variación relativa de caudal = 0.000000
   9:25:00: Sistema equilibrado tras 1 iteración
   
   9:30:00: Proceso de equilibrado del sistema:
            Iteración  1: variación relativa de caudal = 0.000000
   9:30:00: Sistema equilibrado tras 1 iteración
   
   9:35:00: Proceso de equilibrado del sistema:
            Iteración  1: variación relativa de caudal = 0.000000
   9:35:00: Sistema equilibrado tras 1 iteración
   
   9:40:00: Proceso de equilibrado del sistema:
            Iteración  1: variación relativa de caudal = 0.000000
   9:40:00: Sistema equilibrado tras 1 iteración
   
   9:45:00: Proceso de equilibrado del sistema:
            Iteración  1: variación relativa de caudal = 0.000000
   9:45:00: Sistema equilibrado tras 1 iteración
   
   9:50:00: Proceso de equilibrado del sistema:
            Iteración  1: variación relativa de caudal = 0.000000
   9:50:00: Sistema equilibrado tras 1 iteración
   
   9:55:00: Proceso de equilibrado del sistema:
            Iteración  1: variación relativa de caudal = 0.000000
   9:55:00: Sistema equilibrado tras 1 iteración
   
  10:00:00: Proceso de equilibrado del sistema:
            Iteración  1: variación relativa de caudal = 0.000000
  10:00:00: Sistema equilibrado tras 1 iteración
   
  10:05:00: Proceso de equilibrado del sistema:
            Iteración  1: variación relativa de caudal = 0.000000
  10:05:00: Sistema equilibrado tras 1 iteración
   
  10:10:00: Proceso de equilibrado del sistema:
            Iteración  1: variación relativa de caudal = 0.000000
  10:10:00: Sistema equilibrado tras 1 iteración
   
  10:15:00: Proceso de equilibrado del sistema:
            Iteración  1: variación relativa de caudal = 0.000000
  10:15:00: Sistema equilibrado tras 1 iteración
   
  10:20:00: Proceso de equilibrado del sistema:
            Iteración  1: variación relativa de caudal = 0.000000
  10:20:00: Sistema equilibrado tras 1 iteración
   
  10:25:00: Proceso de equilibrado del sistema:
            Iteración  1: variación relativa de caudal = 0.000000
  10:25:00: Sistema equilibrado tras 1 iteración
   
  10:30:00: Proceso de equilibrado del sistema:
            Iteración  1: variación relativa de caudal = 0.000000
  10:30:00: Sistema equilibrado tras 1 iteración
   
  10:35:00: Proceso de equilibrado del sistema:
            Iteración  1: variación relativa de caudal = 0.000000
  10:35:00: Sistema equilibrado tras 1 iteración
   
  10:40:00: Proceso de equilibrado del sistema:
            Iteración  1: variación relativa de caudal = 0.000000
  10:40:00: Sistema equilibrado tras 1 iteración
   
  10:45:00: Proceso de equilibrado del sistema:
            Iteración  1: variación relativa de caudal = 0.000000
  10:45:00: Sistema equilibrado tras 1 iteración
   
  10:50:00: Proceso de equilibrado del sistema:
            Iteración  1: variación relativa de caudal = 0.000000
  10:50:00: Sistema equilibrado tras 1 iteración
   
  10:55:00: Proceso de equilibrado del sistema:
            Iteración  1: variación relativa de caudal = 0.000000
  10:55:00: Sistema equilibrado tras 1 iteración
   
  11:00:00: Proceso de equilibrado del sistema:
            Iteración  1: variación relativa de caudal = 0.000000
  11:00:00: Sistema equilibrado tras 1 iteración
   
  11:05:00: Proceso de equilibrado del sistema:
            Iteración  1: variación relativa de caudal = 0.000000
  11:05:00: Sistema equilibrado tras 1 iteración
   
  11:10:00: Proceso de equilibrado del sistema:
            Iteración  1: variación relativa de caudal = 0.000000
  11:10:00: Sistema equilibrado tras 1 iteración
   
  11:15:00: Proceso de equilibrado del sistema:
            Iteración  1: variación relativa de caudal = 0.000000
  11:15:00: Sistema equilibrado tras 1 iteración
   
  11:20:00: Proceso de equilibrado del sistema:
            Iteración  1: variación relativa de caudal = 0.000000
  11:20:00: Sistema equilibrado tras 1 iteración
   
  11:25:00: Proceso de equilibrado del sistema:
            Iteración  1: variación relativa de caudal = 0.000000
  11:25:00: Sistema equilibrado tras 1 iteración
   
  11:30:00: Proceso de equilibrado del sistema:
            Iteración  1: variación relativa de caudal = 0.000000
  11:30:00: Sistema equilibrado tras 1 iteración
   
  11:35:00: Proceso de equilibrado del sistema:
            Iteración  1: variación relativa de caudal = 0.000000
  11:35:00: Sistema equilibrado tras 1 iteración
   
  11:40:00: Proceso de equilibrado del sistema:
            Iteración  1: variación relativa de caudal = 0.000000
  11:40:00: Sistema equilibrado tras 1 iteración
   
  11:45:00: Proceso de equilibrado del sistema:
            Iteración  1: variación relativa de caudal = 0.000000
  11:45:00: Sistema equilibrado tras 1 iteración
   
  11:50:00: Proceso de equilibrado del sistema:
            Iteración  1: variación relativa de caudal = 0.000000
  11:50:00: Sistema equilibrado tras 1 iteración
   
  11:55:00: Proceso de equilibrado del sistema:
            Iteración  1: variación relativa de caudal = 0.000000
  11:55:00: Sistema equilibrado tras 1 iteración
   
  12:00:00: Proceso de equilibrado del sistema:
            Iteración  1: variación relativa de caudal = 0.000000
  12:00:00: Sistema equilibrado tras 1 iteración
   
  12:05:00: Proceso de equilibrado del sistema:
            Iteración  1: variación relativa de caudal = 0.000000
  12:05:00: Sistema equilibrado tras 1 iteración
   
  12:10:00: Proceso de equilibrado del sistema:
            Iteración  1: variación relativa de caudal = 0.000000
  12:10:00: Sistema equilibrado tras 1 iteración
   
  12:15:00: Proceso de equilibrado del sistema:
            Iteración  1: variación relativa de caudal = 0.000000
  12:15:00: Sistema equilibrado tras 1 iteración
   
  12:20:00: Proceso de equilibrado del sistema:
            Iteración  1: variación relativa de caudal = 0.000000
  12:20:00: Sistema equilibrado tras 1 iteración
   
  12:25:00: Proceso de equilibrado del sistema:
            Iteración  1: variación relativa de caudal = 0.000000
  12:25:00: Sistema equilibrado tras 1 iteración
   
  12:30:00: Proceso de equilibrado del sistema:
            Iteración  1: variación relativa de caudal = 0.000000
  12:30:00: Sistema equilibrado tras 1 iteración
   
  12:35:00: Proceso de equilibrado del sistema:
            Iteración  1: variación relativa de caudal = 0.000000
  12:35:00: Sistema equilibrado tras 1 iteración
   
  12:40:00: Proceso de equilibrado del sistema:
            Iteración  1: variación relativa de caudal = 0.000000
  12:40:00: Sistema equilibrado tras 1 iteración
   
  12:45:00: Proceso de equilibrado del sistema:
            Iteración  1: variación relativa de caudal = 0.000000
  12:45:00: Sistema equilibrado tras 1 iteración
   
  12:50:00: Proceso de equilibrado del sistema:
            Iteración  1: variación relativa de caudal = 0.000000
  12:50:00: Sistema equilibrado tras 1 iteración
   
  12:55:00: Proceso de equilibrado del sistema:
            Iteración  1: variación relativa de caudal = 0.000000
  12:55:00: Sistema equilibrado tras 1 iteración
   
  13:00:00: Proceso de equilibrado del sistema:
            Iteración  1: variación relativa de caudal = 0.000000
  13:00:00: Sistema equilibrado tras 1 iteración
   
  13:05:00: Proceso de equilibrado del sistema:
            Iteración  1: variación relativa de caudal = 0.000000
  13:05:00: Sistema equilibrado tras 1 iteración
   
  13:10:00: Proceso de equilibrado del sistema:
            Iteración  1: variación relativa de caudal = 0.000000
  13:10:00: Sistema equilibrado tras 1 iteración
   
  13:15:00: Proceso de equilibrado del sistema:
            Iteración  1: variación relativa de caudal = 0.000000
  13:15:00: Sistema equilibrado tras 1 iteración
   
  13:20:00: Proceso de equilibrado del sistema:
            Iteración  1: variación relativa de caudal = 0.000000
  13:20:00: Sistema equilibrado tras 1 iteración
   
  13:25:00: Proceso de equilibrado del sistema:
            Iteración  1: variación relativa de caudal = 0.000000
  13:25:00: Sistema equilibrado tras 1 iteración
   
  13:30:00: Proceso de equilibrado del sistema:
            Iteración  1: variación relativa de caudal = 0.000000
  13:30:00: Sistema equilibrado tras 1 iteración
   
  13:35:00: Proceso de equilibrado del sistema:
            Iteración  1: variación relativa de caudal = 0.000000
  13:35:00: Sistema equilibrado tras 1 iteración
   
  13:40:00: Proceso de equilibrado del sistema:
            Iteración  1: variación relativa de caudal = 0.000000
  13:40:00: Sistema equilibrado tras 1 iteración
   
  13:45:00: Proceso de equilibrado del sistema:
            Iteración  1: variación relativa de caudal = 0.000000
  13:45:00: Sistema equilibrado tras 1 iteración
   
  13:50:00: Proceso de equilibrado del sistema:
            Iteración  1: variación relativa de caudal = 0.000000
  13:50:00: Sistema equilibrado tras 1 iteración
   
  13:55:00: Proceso de equilibrado del sistema:
            Iteración  1: variación relativa de caudal = 0.000000
  13:55:00: Sistema equilibrado tras 1 iteración
   
  14:00:00: Proceso de equilibrado del sistema:
            Iteración  1: variación relativa de caudal = 0.000000
  14:00:00: Sistema equilibrado tras 1 iteración
   
  14:05:00: Proceso de equilibrado del sistema:
            Iteración  1: variación relativa de caudal = 0.000000
  14:05:00: Sistema equilibrado tras 1 iteración
   
  14:10:00: Proceso de equilibrado del sistema:
            Iteración  1: variación relativa de caudal = 0.000000
  14:10:00: Sistema equilibrado tras 1 iteración
   
  14:15:00: Proceso de equilibrado del sistema:
            Iteración  1: variación relativa de caudal = 0.000000
  14:15:00: Sistema equilibrado tras 1 iteración
   
  14:20:00: Proceso de equilibrado del sistema:
            Iteración  1: variación relativa de caudal = 0.000000
  14:20:00: Sistema equilibrado tras 1 iteración
   
  14:25:00: Proceso de equilibrado del sistema:
            Iteración  1: variación relativa de caudal = 0.000000
  14:25:00: Sistema equilibrado tras 1 iteración
   
  14:30:00: Proceso de equilibrado del sistema:
            Iteración  1: variación relativa de caudal = 0.000000
  14:30:00: Sistema equilibrado tras 1 iteración
   
  14:35:00: Proceso de equilibrado del sistema:
            Iteración  1: variación relativa de caudal = 0.000000
  14:35:00: Sistema equilibrado tras 1 iteración
   
  14:40:00: Proceso de equilibrado del sistema:
            Iteración  1: variación relativa de caudal = 0.000000
  14:40:00: Sistema equilibrado tras 1 iteración
   
  14:45:00: Proceso de equilibrado del sistema:
            Iteración  1: variación relativa de caudal = 0.000000
  14:45:00: Sistema equilibrado tras 1 iteración
   
  14:50:00: Proceso de equilibrado del sistema:
            Iteración  1: variación relativa de caudal = 0.000000
  14:50:00: Sistema equilibrado tras 1 iteración
   
  14:55:00: Proceso de equilibrado del sistema:
            Iteración  1: variación relativa de caudal = 0.000000
  14:55:00: Sistema equilibrado tras 1 iteración
   
  15:00:00: Proceso de equilibrado del sistema:
            Iteración  1: variación relativa de caudal = 0.000000
  15:00:00: Sistema equilibrado tras 1 iteración
   
  15:05:00: Proceso de equilibrado del sistema:
            Iteración  1: variación relativa de caudal = 0.000000
  15:05:00: Sistema equilibrado tras 1 iteración
   
  15:10:00: Proceso de equilibrado del sistema:
            Iteración  1: variación relativa de caudal = 0.000000
  15:10:00: Sistema equilibrado tras 1 iteración
   
  15:15:00: Proceso de equilibrado del sistema:
            Iteración  1: variación relativa de caudal = 0.000000
  15:15:00: Sistema equilibrado tras 1 iteración
   
  15:20:00: Proceso de equilibrado del sistema:
            Iteración  1: variación relativa de caudal = 0.000000
  15:20:00: Sistema equilibrado tras 1 iteración
   
  15:25:00: Proceso de equilibrado del sistema:
            Iteración  1: variación relativa de caudal = 0.000000
  15:25:00: Sistema equilibrado tras 1 iteración
   
  15:30:00: Proceso de equilibrado del sistema:
            Iteración  1: variación relativa de caudal = 0.000000
  15:30:00: Sistema equilibrado tras 1 iteración
   
  15:35:00: Proceso de equilibrado del sistema:
            Iteración  1: variación relativa de caudal = 0.000000
  15:35:00: Sistema equilibrado tras 1 iteración
   
  15:40:00: Proceso de equilibrado del sistema:
            Iteración  1: variación relativa de caudal = 0.000000
  15:40:00: Sistema equilibrado tras 1 iteración
   
  15:45:00: Proceso de equilibrado del sistema:
            Iteración  1: variación relativa de caudal = 0.000000
  15:45:00: Sistema equilibrado tras 1 iteración
   
  15:50:00: Proceso de equilibrado del sistema:
            Iteración  1: variación relativa de caudal = 0.000000
  15:50:00: Sistema equilibrado tras 1 iteración
   
  15:55:00: Proceso de equilibrado del sistema:
            Iteración  1: variación relativa de caudal = 0.000000
  15:55:00: Sistema equilibrado tras 1 iteración
   
  16:00:00: Proceso de equilibrado del sistema:
            Iteración  1: variación relativa de caudal = 0.000000
  16:00:00: Sistema equilibrado tras 1 iteración
   
  16:05:00: Proceso de equilibrado del sistema:
            Iteración  1: variación relativa de caudal = 0.000000
  16:05:00: Sistema equilibrado tras 1 iteración
   
  16:10:00: Proceso de equilibrado del sistema:
            Iteración  1: variación relativa de caudal = 0.000000
  16:10:00: Sistema equilibrado tras 1 iteración
   
  16:15:00: Proceso de equilibrado del sistema:
            Iteración  1: variación relativa de caudal = 0.000000
  16:15:00: Sistema equilibrado tras 1 iteración
   
  16:20:00: Proceso de equilibrado del sistema:
            Iteración  1: variación relativa de caudal = 0.000000
  16:20:00: Sistema equilibrado tras 1 iteración
   
  16:25:00: Proceso de equilibrado del sistema:
            Iteración  1: variación relativa de caudal = 0.000000
  16:25:00: Sistema equilibrado tras 1 iteración
   
  16:30:00: Proceso de equilibrado del sistema:
            Iteración  1: variación relativa de caudal = 0.000000
  16:30:00: Sistema equilibrado tras 1 iteración
   
  16:35:00: Proceso de equilibrado del sistema:
            Iteración  1: variación relativa de caudal = 0.000000
  16:35:00: Sistema equilibrado tras 1 iteración
   
  16:40:00: Proceso de equilibrado del sistema:
            Iteración  1: variación relativa de caudal = 0.000000
  16:40:00: Sistema equilibrado tras 1 iteración
   
  16:45:00: Proceso de equilibrado del sistema:
            Iteración  1: variación relativa de caudal = 0.000000
  16:45:00: Sistema equilibrado tras 1 iteración
   
  16:50:00: Proceso de equilibrado del sistema:
            Iteración  1: variación relativa de caudal = 0.000000
  16:50:00: Sistema equilibrado tras 1 iteración
   
  16:55:00: Proceso de equilibrado del sistema:
            Iteración  1: variación relativa de caudal = 0.000000
  16:55:00: Sistema equilibrado tras 1 iteración
   
  17:00:00: Proceso de equilibrado del sistema:
            Iteración  1: variación relativa de caudal = 0.000000
  17:00:00: Sistema equilibrado tras 1 iteración
   
  17:05:00: Proceso de equilibrado del sistema:
            Iteración  1: variación relativa de caudal = 0.000000
  17:05:00: Sistema equilibrado tras 1 iteración
   
  17:10:00: Proceso de equilibrado del sistema:
            Iteración  1: variación relativa de caudal = 0.000000
  17:10:00: Sistema equilibrado tras 1 iteración
   
  17:15:00: Proceso de equilibrado del sistema:
            Iteración  1: variación relativa de caudal = 0.000000
  17:15:00: Sistema equilibrado tras 1 iteración
   
  17:20:00: Proceso de equilibrado del sistema:
            Iteración  1: variación relativa de caudal = 0.000000
  17:20:00: Sistema equilibrado tras 1 iteración
   
  17:25:00: Proceso de equilibrado del sistema:
            Iteración  1: variación relativa de caudal = 0.000000
  17:25:00: Sistema equilibrado tras 1 iteración
   
  17:30:00: Proceso de equilibrado del sistema:
            Iteración  1: variación relativa de caudal = 0.000000
  17:30:00: Sistema equilibrado tras 1 iteración
   
  17:35:00: Proceso de equilibrado del sistema:
            Iteración  1: variación relativa de caudal = 0.000000
  17:35:00: Sistema equilibrado tras 1 iteración
   
  17:40:00: Proceso de equilibrado del sistema:
            Iteración  1: variación relativa de caudal = 0.000000
  17:40:00: Sistema equilibrado tras 1 iteración
   
  17:45:00: Proceso de equilibrado del sistema:
            Iteración  1: variación relativa de caudal = 0.000000
  17:45:00: Sistema equilibrado tras 1 iteración
   
  17:50:00: Proceso de equilibrado del sistema:
            Iteración  1: variación relativa de caudal = 0.000000
  17:50:00: Sistema equilibrado tras 1 iteración
   
  17:55:00: Proceso de equilibrado del sistema:
            Iteración  1: variación relativa de caudal = 0.000000
  17:55:00: Sistema equilibrado tras 1 iteración
   
  18:00:00: Proceso de equilibrado del sistema:
            Iteración  1: variación relativa de caudal = 0.000000
  18:00:00: Sistema equilibrado tras 1 iteración
   
  18:05:00: Proceso de equilibrado del sistema:
            Iteración  1: variación relativa de caudal = 0.000000
  18:05:00: Sistema equilibrado tras 1 iteración
   
  18:10:00: Proceso de equilibrado del sistema:
            Iteración  1: variación relativa de caudal = 0.000000
  18:10:00: Sistema equilibrado tras 1 iteración
   
  18:15:00: Proceso de equilibrado del sistema:
            Iteración  1: variación relativa de caudal = 0.000000
  18:15:00: Sistema equilibrado tras 1 iteración
   
  18:20:00: Proceso de equilibrado del sistema:
            Iteración  1: variación relativa de caudal = 0.000000
  18:20:00: Sistema equilibrado tras 1 iteración
   
  18:25:00: Proceso de equilibrado del sistema:
            Iteración  1: variación relativa de caudal = 0.000000
  18:25:00: Sistema equilibrado tras 1 iteración
   
  18:30:00: Proceso de equilibrado del sistema:
            Iteración  1: variación relativa de caudal = 0.000000
  18:30:00: Sistema equilibrado tras 1 iteración
   
  18:35:00: Proceso de equilibrado del sistema:
            Iteración  1: variación relativa de caudal = 0.000000
  18:35:00: Sistema equilibrado tras 1 iteración
   
  18:40:00: Proceso de equilibrado del sistema:
            Iteración  1: variación relativa de caudal = 0.000000
  18:40:00: Sistema equilibrado tras 1 iteración
   
  18:45:00: Proceso de equilibrado del sistema:
            Iteración  1: variación relativa de caudal = 0.000000
  18:45:00: Sistema equilibrado tras 1 iteración
   
  18:50:00: Proceso de equilibrado del sistema:
            Iteración  1: variación relativa de caudal = 0.000000
  18:50:00: Sistema equilibrado tras 1 iteración
   
  18:55:00: Proceso de equilibrado del sistema:
            Iteración  1: variación relativa de caudal = 0.000000
  18:55:00: Sistema equilibrado tras 1 iteración
   
  19:00:00: Proceso de equilibrado del sistema:
            Iteración  1: variación relativa de caudal = 0.000000
  19:00:00: Sistema equilibrado tras 1 iteración
   
  19:05:00: Proceso de equilibrado del sistema:
            Iteración  1: variación relativa de caudal = 0.000000
  19:05:00: Sistema equilibrado tras 1 iteración
   
  19:10:00: Proceso de equilibrado del sistema:
            Iteración  1: variación relativa de caudal = 0.000000
  19:10:00: Sistema equilibrado tras 1 iteración
   
  19:15:00: Proceso de equilibrado del sistema:
            Iteración  1: variación relativa de caudal = 0.000000
  19:15:00: Sistema equilibrado tras 1 iteración
   
  19:20:00: Proceso de equilibrado del sistema:
            Iteración  1: variación relativa de caudal = 0.000000
  19:20:00: Sistema equilibrado tras 1 iteración
   
  19:25:00: Proceso de equilibrado del sistema:
            Iteración  1: variación relativa de caudal = 0.000000
  19:25:00: Sistema equilibrado tras 1 iteración
   
  19:30:00: Proceso de equilibrado del sistema:
            Iteración  1: variación relativa de caudal = 0.000000
  19:30:00: Sistema equilibrado tras 1 iteración
   
  19:35:00: Proceso de equilibrado del sistema:
            Iteración  1: variación relativa de caudal = 0.000000
  19:35:00: Sistema equilibrado tras 1 iteración
   
  19:40:00: Proceso de equilibrado del sistema:
            Iteración  1: variación relativa de caudal = 0.000000
  19:40:00: Sistema equilibrado tras 1 iteración
   
  19:45:00: Proceso de equilibrado del sistema:
            Iteración  1: variación relativa de caudal = 0.000000
  19:45:00: Sistema equilibrado tras 1 iteración
   
  19:50:00: Proceso de equilibrado del sistema:
            Iteración  1: variación relativa de caudal = 0.000000
  19:50:00: Sistema equilibrado tras 1 iteración
   
  19:55:00: Proceso de equilibrado del sistema:
            Iteración  1: variación relativa de caudal = 0.000000
  19:55:00: Sistema equilibrado tras 1 iteración
   
  20:00:00: Proceso de equilibrado del sistema:
            Iteración  1: variación relativa de caudal = 0.000000
  20:00:00: Sistema equilibrado tras 1 iteración
   
  20:05:00: Proceso de equilibrado del sistema:
            Iteración  1: variación relativa de caudal = 0.000000
  20:05:00: Sistema equilibrado tras 1 iteración
   
  20:10:00: Proceso de equilibrado del sistema:
            Iteración  1: variación relativa de caudal = 0.000000
  20:10:00: Sistema equilibrado tras 1 iteración
   
  20:15:00: Proceso de equilibrado del sistema:
            Iteración  1: variación relativa de caudal = 0.000000
  20:15:00: Sistema equilibrado tras 1 iteración
   
  20:20:00: Proceso de equilibrado del sistema:
            Iteración  1: variación relativa de caudal = 0.000000
  20:20:00: Sistema equilibrado tras 1 iteración
   
  20:25:00: Proceso de equilibrado del sistema:
            Iteración  1: variación relativa de caudal = 0.000000
  20:25:00: Sistema equilibrado tras 1 iteración
   
  20:30:00: Proceso de equilibrado del sistema:
            Iteración  1: variación relativa de caudal = 0.000000
  20:30:00: Sistema equilibrado tras 1 iteración
   
  20:35:00: Proceso de equilibrado del sistema:
            Iteración  1: variación relativa de caudal = 0.000000
  20:35:00: Sistema equilibrado tras 1 iteración
   
  20:40:00: Proceso de equilibrado del sistema:
            Iteración  1: variación relativa de caudal = 0.000000
  20:40:00: Sistema equilibrado tras 1 iteración
   
  20:45:00: Proceso de equilibrado del sistema:
            Iteración  1: variación relativa de caudal = 0.000000
  20:45:00: Sistema equilibrado tras 1 iteración
   
  20:50:00: Proceso de equilibrado del sistema:
            Iteración  1: variación relativa de caudal = 0.000000
  20:50:00: Sistema equilibrado tras 1 iteración
   
  20:55:00: Proceso de equilibrado del sistema:
            Iteración  1: variación relativa de caudal = 0.000000
  20:55:00: Sistema equilibrado tras 1 iteración
   
  21:00:00: Proceso de equilibrado del sistema:
            Iteración  1: variación relativa de caudal = 0.000000
  21:00:00: Sistema equilibrado tras 1 iteración
   
  21:05:00: Proceso de equilibrado del sistema:
            Iteración  1: variación relativa de caudal = 0.000000
  21:05:00: Sistema equilibrado tras 1 iteración
   
  21:10:00: Proceso de equilibrado del sistema:
            Iteración  1: variación relativa de caudal = 0.000000
  21:10:00: Sistema equilibrado tras 1 iteración
   
  21:15:00: Proceso de equilibrado del sistema:
            Iteración  1: variación relativa de caudal = 0.000000
  21:15:00: Sistema equilibrado tras 1 iteración
   
  21:20:00: Proceso de equilibrado del sistema:
            Iteración  1: variación relativa de caudal = 0.000000
  21:20:00: Sistema equilibrado tras 1 iteración
   
  21:25:00: Proceso de equilibrado del sistema:
            Iteración  1: variación relativa de caudal = 0.000000
  21:25:00: Sistema equilibrado tras 1 iteración
   
  21:30:00: Proceso de equilibrado del sistema:
            Iteración  1: variación relativa de caudal = 0.000000
  21:30:00: Sistema equilibrado tras 1 iteración
   
  21:35:00: Proceso de equilibrado del sistema:
            Iteración  1: variación relativa de caudal = 0.000000
  21:35:00: Sistema equilibrado tras 1 iteración
   
  21:40:00: Proceso de equilibrado del sistema:
            Iteración  1: variación relativa de caudal = 0.000000
  21:40:00: Sistema equilibrado tras 1 iteración
   
  21:45:00: Proceso de equilibrado del sistema:
            Iteración  1: variación relativa de caudal = 0.000000
  21:45:00: Sistema equilibrado tras 1 iteración
   
  21:50:00: Proceso de equilibrado del sistema:
            Iteración  1: variación relativa de caudal = 0.000000
  21:50:00: Sistema equilibrado tras 1 iteración
   
  21:55:00: Proceso de equilibrado del sistema:
            Iteración  1: variación relativa de caudal = 0.000000
  21:55:00: Sistema equilibrado tras 1 iteración
   
  22:00:00: Proceso de equilibrado del sistema:
            Iteración  1: variación relativa de caudal = 0.000000
  22:00:00: Sistema equilibrado tras 1 iteración
   
  22:05:00: Proceso de equilibrado del sistema:
            Iteración  1: variación relativa de caudal = 0.000000
  22:05:00: Sistema equilibrado tras 1 iteración
   
  22:10:00: Proceso de equilibrado del sistema:
            Iteración  1: variación relativa de caudal = 0.000000
  22:10:00: Sistema equilibrado tras 1 iteración
   
  22:15:00: Proceso de equilibrado del sistema:
            Iteración  1: variación relativa de caudal = 0.000000
  22:15:00: Sistema equilibrado tras 1 iteración
   
  22:20:00: Proceso de equilibrado del sistema:
            Iteración  1: variación relativa de caudal = 0.000000
  22:20:00: Sistema equilibrado tras 1 iteración
   
  22:25:00: Proceso de equilibrado del sistema:
            Iteración  1: variación relativa de caudal = 0.000000
  22:25:00: Sistema equilibrado tras 1 iteración
   
  22:30:00: Proceso de equilibrado del sistema:
            Iteración  1: variación relativa de caudal = 0.000000
  22:30:00: Sistema equilibrado tras 1 iteración
   
  22:35:00: Proceso de equilibrado del sistema:
            Iteración  1: variación relativa de caudal = 0.000000
  22:35:00: Sistema equilibrado tras 1 iteración
   
  22:40:00: Proceso de equilibrado del sistema:
            Iteración  1: variación relativa de caudal = 0.000000
  22:40:00: Sistema equilibrado tras 1 iteración
   
  22:45:00: Proceso de equilibrado del sistema:
            Iteración  1: variación relativa de caudal = 0.000000
  22:45:00: Sistema equilibrado tras 1 iteración
   
  22:50:00: Proceso de equilibrado del sistema:
            Iteración  1: variación relativa de caudal = 0.000000
  22:50:00: Sistema equilibrado tras 1 iteración
   
  22:55:00: Proceso de equilibrado del sistema:
            Iteración  1: variación relativa de caudal = 0.000000
  22:55:00: Sistema equilibrado tras 1 iteración
   
  23:00:00: Proceso de equilibrado del sistema:
            Iteración  1: variación relativa de caudal = 0.000000
  23:00:00: Sistema equilibrado tras 1 iteración
   
  23:05:00: Proceso de equilibrado del sistema:
            Iteración  1: variación relativa de caudal = 0.000000
  23:05:00: Sistema equilibrado tras 1 iteración
   
  23:10:00: Proceso de equilibrado del sistema:
            Iteración  1: variación relativa de caudal = 0.000000
  23:10:00: Sistema equilibrado tras 1 iteración
   
  23:15:00: Proceso de equilibrado del sistema:
            Iteración  1: variación relativa de caudal = 0.000000
  23:15:00: Sistema equilibrado tras 1 iteración
   
  23:20:00: Proceso de equilibrado del sistema:
            Iteración  1: variación relativa de caudal = 0.000000
  23:20:00: Sistema equilibrado tras 1 iteración
   
  23:25:00: Proceso de equilibrado del sistema:
            Iteración  1: variación relativa de caudal = 0.000000
  23:25:00: Sistema equilibrado tras 1 iteración
   
  23:30:00: Proceso de equilibrado del sistema:
            Iteración  1: variación relativa de caudal = 0.000000
  23:30:00: Sistema equilibrado tras 1 iteración
   
  23:35:00: Proceso de equilibrado del sistema:
            Iteración  1: variación relativa de caudal = 0.000000
  23:35:00: Sistema equilibrado tras 1 iteración
   
  23:40:00: Proceso de equilibrado del sistema:
            Iteración  1: variación relativa de caudal = 0.000000
  23:40:00: Sistema equilibrado tras 1 iteración
   
  23:45:00: Proceso de equilibrado del sistema:
            Iteración  1: variación relativa de caudal = 0.000000
  23:45:00: Sistema equilibrado tras 1 iteración
   
  23:50:00: Proceso de equilibrado del sistema:
            Iteración  1: variación relativa de caudal = 0.000000
  23:50:00: Sistema equilibrado tras 1 iteración
   
  23:55:00: Proceso de equilibrado del sistema:
            Iteración  1: variación relativa de caudal = 0.000000
  23:55:00: Sistema equilibrado tras 1 iteración
   
  24:00:00: Proceso de equilibrado del sistema:
            Iteración  1: variación relativa de caudal = 0.000000
  24:00:00: Sistema equilibrado tras 1 iteración
   
  24:05:00: Proceso de equilibrado del sistema:
            Iteración  1: variación relativa de caudal = 0.000000
  24:05:00: Sistema equilibrado tras 1 iteración
   
  24:10:00: Proceso de equilibrado del sistema:
            Iteración  1: variación relativa de caudal = 0.000000
  24:10:00: Sistema equilibrado tras 1 iteración
   
  24:15:00: Proceso de equilibrado del sistema:
            Iteración  1: variación relativa de caudal = 0.000000
  24:15:00: Sistema equilibrado tras 1 iteración
   
  24:20:00: Proceso de equilibrado del sistema:
            Iteración  1: variación relativa de caudal = 0.000000
  24:20:00: Sistema equilibrado tras 1 iteración
   
  24:25:00: Proceso de equilibrado del sistema:
            Iteración  1: variación relativa de caudal = 0.000000
  24:25:00: Sistema equilibrado tras 1 iteración
   
  24:30:00: Proceso de equilibrado del sistema:
            Iteración  1: variación relativa de caudal = 0.000000
  24:30:00: Sistema equilibrado tras 1 iteración
   
  24:35:00: Proceso de equilibrado del sistema:
            Iteración  1: variación relativa de caudal = 0.000000
  24:35:00: Sistema equilibrado tras 1 iteración
   
  24:40:00: Proceso de equilibrado del sistema:
            Iteración  1: variación relativa de caudal = 0.000000
  24:40:00: Sistema equilibrado tras 1 iteración
   
  24:45:00: Proceso de equilibrado del sistema:
            Iteración  1: variación relativa de caudal = 0.000000
  24:45:00: Sistema equilibrado tras 1 iteración
   
  24:50:00: Proceso de equilibrado del sistema:
            Iteración  1: variación relativa de caudal = 0.000000
  24:50:00: Sistema equilibrado tras 1 iteración
   
  24:55:00: Proceso de equilibrado del sistema:
            Iteración  1: variación relativa de caudal = 0.000000
  24:55:00: Sistema equilibrado tras 1 iteración
   
  25:00:00: Proceso de equilibrado del sistema:
            Iteración  1: variación relativa de caudal = 0.000000
  25:00:00: Sistema equilibrado tras 1 iteración
   
  25:05:00: Proceso de equilibrado del sistema:
            Iteración  1: variación relativa de caudal = 0.000000
  25:05:00: Sistema equilibrado tras 1 iteración
   
  25:10:00: Proceso de equilibrado del sistema:
            Iteración  1: variación relativa de caudal = 0.000000
  25:10:00: Sistema equilibrado tras 1 iteración
   
  25:15:00: Proceso de equilibrado del sistema:
            Iteración  1: variación relativa de caudal = 0.000000
  25:15:00: Sistema equilibrado tras 1 iteración
   
  25:20:00: Proceso de equilibrado del sistema:
            Iteración  1: variación relativa de caudal = 0.000000
  25:20:00: Sistema equilibrado tras 1 iteración
   
  25:25:00: Proceso de equilibrado del sistema:
            Iteración  1: variación relativa de caudal = 0.000000
  25:25:00: Sistema equilibrado tras 1 iteración
   
  25:30:00: Proceso de equilibrado del sistema:
            Iteración  1: variación relativa de caudal = 0.000000
  25:30:00: Sistema equilibrado tras 1 iteración
   
  25:35:00: Proceso de equilibrado del sistema:
            Iteración  1: variación relativa de caudal = 0.000000
  25:35:00: Sistema equilibrado tras 1 iteración
   
  25:40:00: Proceso de equilibrado del sistema:
            Iteración  1: variación relativa de caudal = 0.000000
  25:40:00: Sistema equilibrado tras 1 iteración
   
  25:45:00: Proceso de equilibrado del sistema:
            Iteración  1: variación relativa de caudal = 0.000000
  25:45:00: Sistema equilibrado tras 1 iteración
   
  25:50:00: Proceso de equilibrado del sistema:
            Iteración  1: variación relativa de caudal = 0.000000
  25:50:00: Sistema equilibrado tras 1 iteración
   
  25:55:00: Proceso de equilibrado del sistema:
            Iteración  1: variación relativa de caudal = 0.000000
  25:55:00: Sistema equilibrado tras 1 iteración
   
  26:00:00: Proceso de equilibrado del sistema:
            Iteración  1: variación relativa de caudal = 0.000000
  26:00:00: Sistema equilibrado tras 1 iteración
   
  26:05:00: Proceso de equilibrado del sistema:
            Iteración  1: variación relativa de caudal = 0.000000
  26:05:00: Sistema equilibrado tras 1 iteración
   
  26:10:00: Proceso de equilibrado del sistema:
            Iteración  1: variación relativa de caudal = 0.000000
  26:10:00: Sistema equilibrado tras 1 iteración
   
  26:15:00: Proceso de equilibrado del sistema:
            Iteración  1: variación relativa de caudal = 0.000000
  26:15:00: Sistema equilibrado tras 1 iteración
   
  26:20:00: Proceso de equilibrado del sistema:
            Iteración  1: variación relativa de caudal = 0.000000
  26:20:00: Sistema equilibrado tras 1 iteración
   
  26:25:00: Proceso de equilibrado del sistema:
            Iteración  1: variación relativa de caudal = 0.000000
  26:25:00: Sistema equilibrado tras 1 iteración
   
  26:30:00: Proceso de equilibrado del sistema:
            Iteración  1: variación relativa de caudal = 0.000000
  26:30:00: Sistema equilibrado tras 1 iteración
   
  26:35:00: Proceso de equilibrado del sistema:
            Iteración  1: variación relativa de caudal = 0.000000
  26:35:00: Sistema equilibrado tras 1 iteración
   
  26:40:00: Proceso de equilibrado del sistema:
            Iteración  1: variación relativa de caudal = 0.000000
  26:40:00: Sistema equilibrado tras 1 iteración
   
  26:45:00: Proceso de equilibrado del sistema:
            Iteración  1: variación relativa de caudal = 0.000000
  26:45:00: Sistema equilibrado tras 1 iteración
   
  26:50:00: Proceso de equilibrado del sistema:
            Iteración  1: variación relativa de caudal = 0.000000
  26:50:00: Sistema equilibrado tras 1 iteración
   
  26:55:00: Proceso de equilibrado del sistema:
            Iteración  1: variación relativa de caudal = 0.000000
  26:55:00: Sistema equilibrado tras 1 iteración
   
  27:00:00: Proceso de equilibrado del sistema:
            Iteración  1: variación relativa de caudal = 0.000000
  27:00:00: Sistema equilibrado tras 1 iteración
   
  27:05:00: Proceso de equilibrado del sistema:
            Iteración  1: variación relativa de caudal = 0.000000
  27:05:00: Sistema equilibrado tras 1 iteración
   
  27:10:00: Proceso de equilibrado del sistema:
            Iteración  1: variación relativa de caudal = 0.000000
  27:10:00: Sistema equilibrado tras 1 iteración
   
  27:15:00: Proceso de equilibrado del sistema:
            Iteración  1: variación relativa de caudal = 0.000000
  27:15:00: Sistema equilibrado tras 1 iteración
   
  27:20:00: Proceso de equilibrado del sistema:
            Iteración  1: variación relativa de caudal = 0.000000
  27:20:00: Sistema equilibrado tras 1 iteración
   
  27:25:00: Proceso de equilibrado del sistema:
            Iteración  1: variación relativa de caudal = 0.000000
  27:25:00: Sistema equilibrado tras 1 iteración
   
  27:30:00: Proceso de equilibrado del sistema:
            Iteración  1: variación relativa de caudal = 0.000000
  27:30:00: Sistema equilibrado tras 1 iteración
   
  27:35:00: Proceso de equilibrado del sistema:
            Iteración  1: variación relativa de caudal = 0.000000
  27:35:00: Sistema equilibrado tras 1 iteración
   
  27:40:00: Proceso de equilibrado del sistema:
            Iteración  1: variación relativa de caudal = 0.000000
  27:40:00: Sistema equilibrado tras 1 iteración
   
  27:45:00: Proceso de equilibrado del sistema:
            Iteración  1: variación relativa de caudal = 0.000000
  27:45:00: Sistema equilibrado tras 1 iteración
   
  27:50:00: Proceso de equilibrado del sistema:
            Iteración  1: variación relativa de caudal = 0.000000
  27:50:00: Sistema equilibrado tras 1 iteración
   
  27:55:00: Proceso de equilibrado del sistema:
            Iteración  1: variación relativa de caudal = 0.000000
  27:55:00: Sistema equilibrado tras 1 iteración
   
  28:00:00: Proceso de equilibrado del sistema:
            Iteración  1: variación relativa de caudal = 0.000000
  28:00:00: Sistema equilibrado tras 1 iteración
   
  28:05:00: Proceso de equilibrado del sistema:
            Iteración  1: variación relativa de caudal = 0.000000
  28:05:00: Sistema equilibrado tras 1 iteración
   
  28:10:00: Proceso de equilibrado del sistema:
            Iteración  1: variación relativa de caudal = 0.000000
  28:10:00: Sistema equilibrado tras 1 iteración
   
  28:15:00: Proceso de equilibrado del sistema:
            Iteración  1: variación relativa de caudal = 0.000000
  28:15:00: Sistema equilibrado tras 1 iteración
   
  28:20:00: Proceso de equilibrado del sistema:
            Iteración  1: variación relativa de caudal = 0.000000
  28:20:00: Sistema equilibrado tras 1 iteración
   
  28:25:00: Proceso de equilibrado del sistema:
            Iteración  1: variación relativa de caudal = 0.000000
  28:25:00: Sistema equilibrado tras 1 iteración
   
  28:30:00: Proceso de equilibrado del sistema:
            Iteración  1: variación relativa de caudal = 0.000000
  28:30:00: Sistema equilibrado tras 1 iteración
   
  28:35:00: Proceso de equilibrado del sistema:
            Iteración  1: variación relativa de caudal = 0.000000
  28:35:00: Sistema equilibrado tras 1 iteración
   
  28:40:00: Proceso de equilibrado del sistema:
            Iteración  1: variación relativa de caudal = 0.000000
  28:40:00: Sistema equilibrado tras 1 iteración
   
  28:45:00: Proceso de equilibrado del sistema:
            Iteración  1: variación relativa de caudal = 0.000000
  28:45:00: Sistema equilibrado tras 1 iteración
   
  28:50:00: Proceso de equilibrado del sistema:
            Iteración  1: variación relativa de caudal = 0.000000
  28:50:00: Sistema equilibrado tras 1 iteración
   
  28:55:00: Proceso de equilibrado del sistema:
            Iteración  1: variación relativa de caudal = 0.000000
  28:55:00: Sistema equilibrado tras 1 iteración
   
  29:00:00: Proceso de equilibrado del sistema:
            Iteración  1: variación relativa de caudal = 0.000000
  29:00:00: Sistema equilibrado tras 1 iteración
   
  29:05:00: Proceso de equilibrado del sistema:
            Iteración  1: variación relativa de caudal = 0.000000
  29:05:00: Sistema equilibrado tras 1 iteración
   
  29:10:00: Proceso de equilibrado del sistema:
            Iteración  1: variación relativa de caudal = 0.000000
  29:10:00: Sistema equilibrado tras 1 iteración
   
  29:15:00: Proceso de equilibrado del sistema:
            Iteración  1: variación relativa de caudal = 0.000000
  29:15:00: Sistema equilibrado tras 1 iteración
   
  29:20:00: Proceso de equilibrado del sistema:
            Iteración  1: variación relativa de caudal = 0.000000
  29:20:00: Sistema equilibrado tras 1 iteración
   
  29:25:00: Proceso de equilibrado del sistema:
            Iteración  1: variación relativa de caudal = 0.000000
  29:25:00: Sistema equilibrado tras 1 iteración
   
  29:30:00: Proceso de equilibrado del sistema:
            Iteración  1: variación relativa de caudal = 0.000000
  29:30:00: Sistema equilibrado tras 1 iteración
   
  29:35:00: Proceso de equilibrado del sistema:
            Iteración  1: variación relativa de caudal = 0.000000
  29:35:00: Sistema equilibrado tras 1 iteración
   
  29:40:00: Proceso de equilibrado del sistema:
            Iteración  1: variación relativa de caudal = 0.000000
  29:40:00: Sistema equilibrado tras 1 iteración
   
  29:45:00: Proceso de equilibrado del sistema:
            Iteración  1: variación relativa de caudal = 0.000000
  29:45:00: Sistema equilibrado tras 1 iteración
   
  29:50:00: Proceso de equilibrado del sistema:
            Iteración  1: variación relativa de caudal = 0.000000
  29:50:00: Sistema equilibrado tras 1 iteración
   
  29:55:00: Proceso de equilibrado del sistema:
            Iteración  1: variación relativa de caudal = 0.000000
  29:55:00: Sistema equilibrado tras 1 iteración
   
  30:00:00: Proceso de equilibrado del sistema:
            Iteración  1: variación relativa de caudal = 0.000000
  30:00:00: Sistema equilibrado tras 1 iteración
   
  30:05:00: Proceso de equilibrado del sistema:
            Iteración  1: variación relativa de caudal = 0.000000
  30:05:00: Sistema equilibrado tras 1 iteración
   
  30:10:00: Proceso de equilibrado del sistema:
            Iteración  1: variación relativa de caudal = 0.000000
  30:10:00: Sistema equilibrado tras 1 iteración
   
  30:15:00: Proceso de equilibrado del sistema:
            Iteración  1: variación relativa de caudal = 0.000000
  30:15:00: Sistema equilibrado tras 1 iteración
   
  30:20:00: Proceso de equilibrado del sistema:
            Iteración  1: variación relativa de caudal = 0.000000
  30:20:00: Sistema equilibrado tras 1 iteración
   
  30:25:00: Proceso de equilibrado del sistema:
            Iteración  1: variación relativa de caudal = 0.000000
  30:25:00: Sistema equilibrado tras 1 iteración
   
  30:30:00: Proceso de equilibrado del sistema:
            Iteración  1: variación relativa de caudal = 0.000000
  30:30:00: Sistema equilibrado tras 1 iteración
   
  30:35:00: Proceso de equilibrado del sistema:
            Iteración  1: variación relativa de caudal = 0.000000
  30:35:00: Sistema equilibrado tras 1 iteración
   
  30:40:00: Proceso de equilibrado del sistema:
            Iteración  1: variación relativa de caudal = 0.000000
  30:40:00: Sistema equilibrado tras 1 iteración
   
  30:45:00: Proceso de equilibrado del sistema:
            Iteración  1: variación relativa de caudal = 0.000000
  30:45:00: Sistema equilibrado tras 1 iteración
   
  30:50:00: Proceso de equilibrado del sistema:
            Iteración  1: variación relativa de caudal = 0.000000
  30:50:00: Sistema equilibrado tras 1 iteración
   
  30:55:00: Proceso de equilibrado del sistema:
            Iteración  1: variación relativa de caudal = 0.000000
  30:55:00: Sistema equilibrado tras 1 iteración
   
  31:00:00: Proceso de equilibrado del sistema:
            Iteración  1: variación relativa de caudal = 0.000000
  31:00:00: Sistema equilibrado tras 1 iteración
   
  31:05:00: Proceso de equilibrado del sistema:
            Iteración  1: variación relativa de caudal = 0.000000
  31:05:00: Sistema equilibrado tras 1 iteración
   
  31:10:00: Proceso de equilibrado del sistema:
            Iteración  1: variación relativa de caudal = 0.000000
  31:10:00: Sistema equilibrado tras 1 iteración
   
  31:15:00: Proceso de equilibrado del sistema:
            Iteración  1: variación relativa de caudal = 0.000000
  31:15:00: Sistema equilibrado tras 1 iteración
   
  31:20:00: Proceso de equilibrado del sistema:
            Iteración  1: variación relativa de caudal = 0.000000
  31:20:00: Sistema equilibrado tras 1 iteración
   
  31:25:00: Proceso de equilibrado del sistema:
            Iteración  1: variación relativa de caudal = 0.000000
  31:25:00: Sistema equilibrado tras 1 iteración
   
  31:30:00: Proceso de equilibrado del sistema:
            Iteración  1: variación relativa de caudal = 0.000000
  31:30:00: Sistema equilibrado tras 1 iteración
   
  31:35:00: Proceso de equilibrado del sistema:
            Iteración  1: variación relativa de caudal = 0.000000
  31:35:00: Sistema equilibrado tras 1 iteración
   
  31:40:00: Proceso de equilibrado del sistema:
            Iteración  1: variación relativa de caudal = 0.000000
  31:40:00: Sistema equilibrado tras 1 iteración
   
  31:45:00: Proceso de equilibrado del sistema:
            Iteración  1: variación relativa de caudal = 0.000000
  31:45:00: Sistema equilibrado tras 1 iteración
   
  31:50:00: Proceso de equilibrado del sistema:
            Iteración  1: variación relativa de caudal = 0.000000
  31:50:00: Sistema equilibrado tras 1 iteración
   
  31:55:00: Proceso de equilibrado del sistema:
            Iteración  1: variación relativa de caudal = 0.000000
  31:55:00: Sistema equilibrado tras 1 iteración
   
  32:00:00: Proceso de equilibrado del sistema:
            Iteración  1: variación relativa de caudal = 0.000000
  32:00:00: Sistema equilibrado tras 1 iteración
   
  32:05:00: Proceso de equilibrado del sistema:
            Iteración  1: variación relativa de caudal = 0.000000
  32:05:00: Sistema equilibrado tras 1 iteración
   
  32:10:00: Proceso de equilibrado del sistema:
            Iteración  1: variación relativa de caudal = 0.000000
  32:10:00: Sistema equilibrado tras 1 iteración
   
  32:15:00: Proceso de equilibrado del sistema:
            Iteración  1: variación relativa de caudal = 0.000000
  32:15:00: Sistema equilibrado tras 1 iteración
   
  32:20:00: Proceso de equilibrado del sistema:
            Iteración  1: variación relativa de caudal = 0.000000
  32:20:00: Sistema equilibrado tras 1 iteración
   
  32:25:00: Proceso de equilibrado del sistema:
            Iteración  1: variación relativa de caudal = 0.000000
  32:25:00: Sistema equilibrado tras 1 iteración
   
  32:30:00: Proceso de equilibrado del sistema:
            Iteración  1: variación relativa de caudal = 0.000000
  32:30:00: Sistema equilibrado tras 1 iteración
   
  32:35:00: Proceso de equilibrado del sistema:
            Iteración  1: variación relativa de caudal = 0.000000
  32:35:00: Sistema equilibrado tras 1 iteración
   
  32:40:00: Proceso de equilibrado del sistema:
            Iteración  1: variación relativa de caudal = 0.000000
  32:40:00: Sistema equilibrado tras 1 iteración
   
  32:45:00: Proceso de equilibrado del sistema:
            Iteración  1: variación relativa de caudal = 0.000000
  32:45:00: Sistema equilibrado tras 1 iteración
   
  32:50:00: Proceso de equilibrado del sistema:
            Iteración  1: variación relativa de caudal = 0.000000
  32:50:00: Sistema equilibrado tras 1 iteración
   
  32:55:00: Proceso de equilibrado del sistema:
            Iteración  1: variación relativa de caudal = 0.000000
  32:55:00: Sistema equilibrado tras 1 iteración
   
  33:00:00: Proceso de equilibrado del sistema:
            Iteración  1: variación relativa de caudal = 0.000000
  33:00:00: Sistema equilibrado tras 1 iteración
   
  33:05:00: Proceso de equilibrado del sistema:
            Iteración  1: variación relativa de caudal = 0.000000
  33:05:00: Sistema equilibrado tras 1 iteración
   
  33:10:00: Proceso de equilibrado del sistema:
            Iteración  1: variación relativa de caudal = 0.000000
  33:10:00: Sistema equilibrado tras 1 iteración
   
  33:15:00: Proceso de equilibrado del sistema:
            Iteración  1: variación relativa de caudal = 0.000000
  33:15:00: Sistema equilibrado tras 1 iteración
   
  33:20:00: Proceso de equilibrado del sistema:
            Iteración  1: variación relativa de caudal = 0.000000
  33:20:00: Sistema equilibrado tras 1 iteración
   
  33:25:00: Proceso de equilibrado del sistema:
            Iteración  1: variación relativa de caudal = 0.000000
  33:25:00: Sistema equilibrado tras 1 iteración
   
  33:30:00: Proceso de equilibrado del sistema:
            Iteración  1: variación relativa de caudal = 0.000000
  33:30:00: Sistema equilibrado tras 1 iteración
   
  33:35:00: Proceso de equilibrado del sistema:
            Iteración  1: variación relativa de caudal = 0.000000
  33:35:00: Sistema equilibrado tras 1 iteración
   
  33:40:00: Proceso de equilibrado del sistema:
            Iteración  1: variación relativa de caudal = 0.000000
  33:40:00: Sistema equilibrado tras 1 iteración
   
  33:45:00: Proceso de equilibrado del sistema:
            Iteración  1: variación relativa de caudal = 0.000000
  33:45:00: Sistema equilibrado tras 1 iteración
   
  33:50:00: Proceso de equilibrado del sistema:
            Iteración  1: variación relativa de caudal = 0.000000
  33:50:00: Sistema equilibrado tras 1 iteración
   
  33:55:00: Proceso de equilibrado del sistema:
            Iteración  1: variación relativa de caudal = 0.000000
  33:55:00: Sistema equilibrado tras 1 iteración
   
  34:00:00: Proceso de equilibrado del sistema:
            Iteración  1: variación relativa de caudal = 0.000000
  34:00:00: Sistema equilibrado tras 1 iteración
   
  34:05:00: Proceso de equilibrado del sistema:
            Iteración  1: variación relativa de caudal = 0.000000
  34:05:00: Sistema equilibrado tras 1 iteración
   
  34:10:00: Proceso de equilibrado del sistema:
            Iteración  1: variación relativa de caudal = 0.000000
  34:10:00: Sistema equilibrado tras 1 iteración
   
  34:15:00: Proceso de equilibrado del sistema:
            Iteración  1: variación relativa de caudal = 0.000000
  34:15:00: Sistema equilibrado tras 1 iteración
   
  34:20:00: Proceso de equilibrado del sistema:
            Iteración  1: variación relativa de caudal = 0.000000
  34:20:00: Sistema equilibrado tras 1 iteración
   
  34:25:00: Proceso de equilibrado del sistema:
            Iteración  1: variación relativa de caudal = 0.000000
  34:25:00: Sistema equilibrado tras 1 iteración
   
  34:30:00: Proceso de equilibrado del sistema:
            Iteración  1: variación relativa de caudal = 0.000000
  34:30:00: Sistema equilibrado tras 1 iteración
   
  34:35:00: Proceso de equilibrado del sistema:
            Iteración  1: variación relativa de caudal = 0.000000
  34:35:00: Sistema equilibrado tras 1 iteración
   
  34:40:00: Proceso de equilibrado del sistema:
            Iteración  1: variación relativa de caudal = 0.000000
  34:40:00: Sistema equilibrado tras 1 iteración
   
  34:45:00: Proceso de equilibrado del sistema:
            Iteración  1: variación relativa de caudal = 0.000000
  34:45:00: Sistema equilibrado tras 1 iteración
   
  34:50:00: Proceso de equilibrado del sistema:
            Iteración  1: variación relativa de caudal = 0.000000
  34:50:00: Sistema equilibrado tras 1 iteración
   
  34:55:00: Proceso de equilibrado del sistema:
            Iteración  1: variación relativa de caudal = 0.000000
  34:55:00: Sistema equilibrado tras 1 iteración
   
  35:00:00: Proceso de equilibrado del sistema:
            Iteración  1: variación relativa de caudal = 0.000000
  35:00:00: Sistema equilibrado tras 1 iteración
   
  35:05:00: Proceso de equilibrado del sistema:
            Iteración  1: variación relativa de caudal = 0.000000
  35:05:00: Sistema equilibrado tras 1 iteración
   
  35:10:00: Proceso de equilibrado del sistema:
            Iteración  1: variación relativa de caudal = 0.000000
  35:10:00: Sistema equilibrado tras 1 iteración
   
  35:15:00: Proceso de equilibrado del sistema:
            Iteración  1: variación relativa de caudal = 0.000000
  35:15:00: Sistema equilibrado tras 1 iteración
   
  35:20:00: Proceso de equilibrado del sistema:
            Iteración  1: variación relativa de caudal = 0.000000
  35:20:00: Sistema equilibrado tras 1 iteración
   
  35:25:00: Proceso de equilibrado del sistema:
            Iteración  1: variación relativa de caudal = 0.000000
  35:25:00: Sistema equilibrado tras 1 iteración
   
  35:30:00: Proceso de equilibrado del sistema:
            Iteración  1: variación relativa de caudal = 0.000000
  35:30:00: Sistema equilibrado tras 1 iteración
   
  35:35:00: Proceso de equilibrado del sistema:
            Iteración  1: variación relativa de caudal = 0.000000
  35:35:00: Sistema equilibrado tras 1 iteración
   
  35:40:00: Proceso de equilibrado del sistema:
            Iteración  1: variación relativa de caudal = 0.000000
  35:40:00: Sistema equilibrado tras 1 iteración
   
  35:45:00: Proceso de equilibrado del sistema:
            Iteración  1: variación relativa de caudal = 0.000000
  35:45:00: Sistema equilibrado tras 1 iteración
   
  35:50:00: Proceso de equilibrado del sistema:
            Iteración  1: variación relativa de caudal = 0.000000
  35:50:00: Sistema equilibrado tras 1 iteración
   
  35:55:00: Proceso de equilibrado del sistema:
            Iteración  1: variación relativa de caudal = 0.000000
  35:55:00: Sistema equilibrado tras 1 iteración
   
  36:00:00: Proceso de equilibrado del sistema:
            Iteración  1: variación relativa de caudal = 0.000000
  36:00:00: Sistema equilibrado tras 1 iteración
   
  36:05:00: Proceso de equilibrado del sistema:
            Iteración  1: variación relativa de caudal = 0.000000
  36:05:00: Sistema equilibrado tras 1 iteración
   
  36:10:00: Proceso de equilibrado del sistema:
            Iteración  1: variación relativa de caudal = 0.000000
  36:10:00: Sistema equilibrado tras 1 iteración
   
  36:15:00: Proceso de equilibrado del sistema:
            Iteración  1: variación relativa de caudal = 0.000000
  36:15:00: Sistema equilibrado tras 1 iteración
   
  36:20:00: Proceso de equilibrado del sistema:
            Iteración  1: variación relativa de caudal = 0.000000
  36:20:00: Sistema equilibrado tras 1 iteración
   
  36:25:00: Proceso de equilibrado del sistema:
            Iteración  1: variación relativa de caudal = 0.000000
  36:25:00: Sistema equilibrado tras 1 iteración
   
  36:30:00: Proceso de equilibrado del sistema:
            Iteración  1: variación relativa de caudal = 0.000000
  36:30:00: Sistema equilibrado tras 1 iteración
   
  36:35:00: Proceso de equilibrado del sistema:
            Iteración  1: variación relativa de caudal = 0.000000
  36:35:00: Sistema equilibrado tras 1 iteración
   
  36:40:00: Proceso de equilibrado del sistema:
            Iteración  1: variación relativa de caudal = 0.000000
  36:40:00: Sistema equilibrado tras 1 iteración
   
  36:45:00: Proceso de equilibrado del sistema:
            Iteración  1: variación relativa de caudal = 0.000000
  36:45:00: Sistema equilibrado tras 1 iteración
   
  36:50:00: Proceso de equilibrado del sistema:
            Iteración  1: variación relativa de caudal = 0.000000
  36:50:00: Sistema equilibrado tras 1 iteración
   
  36:55:00: Proceso de equilibrado del sistema:
            Iteración  1: variación relativa de caudal = 0.000000
  36:55:00: Sistema equilibrado tras 1 iteración
   
  37:00:00: Proceso de equilibrado del sistema:
            Iteración  1: variación relativa de caudal = 0.000000
  37:00:00: Sistema equilibrado tras 1 iteración
   
  37:05:00: Proceso de equilibrado del sistema:
            Iteración  1: variación relativa de caudal = 0.000000
  37:05:00: Sistema equilibrado tras 1 iteración
   
  37:10:00: Proceso de equilibrado del sistema:
            Iteración  1: variación relativa de caudal = 0.000000
  37:10:00: Sistema equilibrado tras 1 iteración
   
  37:15:00: Proceso de equilibrado del sistema:
            Iteración  1: variación relativa de caudal = 0.000000
  37:15:00: Sistema equilibrado tras 1 iteración
   
  37:20:00: Proceso de equilibrado del sistema:
            Iteración  1: variación relativa de caudal = 0.000000
  37:20:00: Sistema equilibrado tras 1 iteración
   
  37:25:00: Proceso de equilibrado del sistema:
            Iteración  1: variación relativa de caudal = 0.000000
  37:25:00: Sistema equilibrado tras 1 iteración
   
  37:30:00: Proceso de equilibrado del sistema:
            Iteración  1: variación relativa de caudal = 0.000000
  37:30:00: Sistema equilibrado tras 1 iteración
   
  37:35:00: Proceso de equilibrado del sistema:
            Iteración  1: variación relativa de caudal = 0.000000
  37:35:00: Sistema equilibrado tras 1 iteración
   
  37:40:00: Proceso de equilibrado del sistema:
            Iteración  1: variación relativa de caudal = 0.000000
  37:40:00: Sistema equilibrado tras 1 iteración
   
  37:45:00: Proceso de equilibrado del sistema:
            Iteración  1: variación relativa de caudal = 0.000000
  37:45:00: Sistema equilibrado tras 1 iteración
   
  37:50:00: Proceso de equilibrado del sistema:
            Iteración  1: variación relativa de caudal = 0.000000
  37:50:00: Sistema equilibrado tras 1 iteración
   
  37:55:00: Proceso de equilibrado del sistema:
            Iteración  1: variación relativa de caudal = 0.000000
  37:55:00: Sistema equilibrado tras 1 iteración
   
  38:00:00: Proceso de equilibrado del sistema:
            Iteración  1: variación relativa de caudal = 0.000000
  38:00:00: Sistema equilibrado tras 1 iteración
   
  38:05:00: Proceso de equilibrado del sistema:
            Iteración  1: variación relativa de caudal = 0.000000
  38:05:00: Sistema equilibrado tras 1 iteración
   
  38:10:00: Proceso de equilibrado del sistema:
            Iteración  1: variación relativa de caudal = 0.000000
  38:10:00: Sistema equilibrado tras 1 iteración
   
  38:15:00: Proceso de equilibrado del sistema:
            Iteración  1: variación relativa de caudal = 0.000000
  38:15:00: Sistema equilibrado tras 1 iteración
   
  38:20:00: Proceso de equilibrado del sistema:
            Iteración  1: variación relativa de caudal = 0.000000
  38:20:00: Sistema equilibrado tras 1 iteración
   
  38:25:00: Proceso de equilibrado del sistema:
            Iteración  1: variación relativa de caudal = 0.000000
  38:25:00: Sistema equilibrado tras 1 iteración
   
  38:30:00: Proceso de equilibrado del sistema:
[...]
                    Demanda    Altura   Presión
  Nudo                  gpm        ft       psi
  ----------------------------------------------
  node0                0.01     16.79      7.27
  tank0               -0.01     18.81      3.82  Depósito
   
   
  Resultados en las Líneas a las 45:35:00 hr:
  ----------------------------------------------
                     Caudal     Veloc   Pérdida
  Línea                 gpm       fps   /1000ft
  ----------------------------------------------
  pipe0                0.01      0.41     14.34
   
   
  Resultados en los Nudos a las 45:40:00 hr:
  ----------------------------------------------
                    Demanda    Altura   Presión
  Nudo                  gpm        ft       psi
  ----------------------------------------------
  node0                0.01     16.79      7.27
  tank0               -0.01     18.81      3.82  Depósito
   
   
  Resultados en las Líneas a las 45:40:00 hr:
  ----------------------------------------------
                     Caudal     Veloc   Pérdida
  Línea                 gpm       fps   /1000ft
  ----------------------------------------------
  pipe0                0.01      0.41     14.34
   
   
  Resultados en los Nudos a las 45:45:00 hr:
  ----------------------------------------------
                    Demanda    Altura   Presión
  Nudo                  gpm        ft       psi
  ----------------------------------------------
  node0                0.01     16.79      7.27
  tank0               -0.01     18.81      3.82  Depósito
   
   
  Resultados en las Líneas a las 45:45:00 hr:
  ----------------------------------------------
                     Caudal     Veloc   Pérdida
  Línea                 gpm       fps   /1000ft
  ----------------------------------------------
  pipe0                0.01      0.41     14.34
   
   
  Resultados en los Nudos a las 45:50:00 hr:
  ----------------------------------------------
                    Demanda    Altura   Presión
  Nudo                  gpm        ft       psi
  ----------------------------------------------
  node0                0.01     16.79      7.27
  tank0               -0.01     18.81      3.82  Depósito
   
   
  Resultados en las Líneas a las 45:50:00 hr:
  ----------------------------------------------
                     Caudal     Veloc   Pérdida
  Línea                 gpm       fps   /1000ft
  ----------------------------------------------
  pipe0                0.01      0.41     14.34
   
   
  Resultados en los Nudos a las 45:55:00 hr:
  ----------------------------------------------
                    Demanda    Altura   Presión
  Nudo                  gpm        ft       psi
  ----------------------------------------------
  node0                0.01     16.78      7.27
  tank0               -0.01     18.81      3.82  Depósito
   
   
  Resultados en las Líneas a las 45:55:00 hr:
  ----------------------------------------------
                     Caudal     Veloc   Pérdida
  Línea                 gpm       fps   /1000ft
  ----------------------------------------------
  pipe0                0.01      0.41     14.34
   
   
  Resultados en los Nudos a las 46:00:00 hr:
  ----------------------------------------------
                    Demanda    Altura   Presión
  Nudo                  gpm        ft       psi
  ----------------------------------------------
  node0                0.01     16.78      7.27
  tank0               -0.01     18.81      3.82  Depósito
   
   
  Resultados en las Líneas a las 46:00:00 hr:
  ----------------------------------------------
                     Caudal     Veloc   Pérdida
  Línea                 gpm       fps   /1000ft
  ----------------------------------------------
  pipe0                0.01      0.41     14.34
   
   
  Resultados en los Nudos a las 46:05:00 hr:
  ----------------------------------------------
                    Demanda    Altura   Presión
  Nudo                  gpm        ft       psi
  ----------------------------------------------
  node0                0.01     16.78      7.27
  tank0               -0.01     18.81      3.82  Depósito
   
   
  Resultados en las Líneas a las 46:05:00 hr:
  ----------------------------------------------
                     Caudal     Veloc   Pérdida
  Línea                 gpm       fps   /1000ft
  ----------------------------------------------
  pipe0                0.01      0.41     14.34
   
   
  Resultados en los Nudos a las 46:10:00 hr:
  ----------------------------------------------
                    Demanda    Altura   Presión
  Nudo                  gpm        ft       psi
  ----------------------------------------------
  node0                0.01     16.78      7.27
  tank0               -0.01     18.81      3.82  Depósito
   
   
  Resultados en las Líneas a las 46:10:00 hr:
  ----------------------------------------------
                     Caudal     Veloc   Pérdida
  Línea                 gpm       fps   /1000ft
  ----------------------------------------------
  pipe0                0.01      0.41     14.34
   
   
  Resultados en los Nudos a las 46:15:00 hr:
  ----------------------------------------------
                    Demanda    Altura   Presión
  Nudo                  gpm        ft       psi
  ----------------------------------------------
  node0                0.01     16.78      7.27
  tank0               -0.01     18.81      3.82  Depósito
   
   
  Resultados en las Líneas a las 46:15:00 hr:
  ----------------------------------------------
                     Caudal     Veloc   Pérdida
  Línea                 gpm       fps   /1000ft
  ----------------------------------------------
  pipe0                0.01      0.41     14.34
   
   
  Resultados en los Nudos a las 46:20:00 hr:
  ----------------------------------------------
                    Demanda    Altura   Presión
  Nudo                  gpm        ft       psi
  ----------------------------------------------
  node0                0.01     16.78      7.27
  tank0               -0.01     18.81      3.82  Depósito
   
   
  Resultados en las Líneas a las 46:20:00 hr:
  ----------------------------------------------
                     Caudal     Veloc   Pérdida
  Línea                 gpm       fps   /1000ft
  ----------------------------------------------
  pipe0                0.01      0.41     14.34
   
   
  Resultados en los Nudos a las 46:25:00 hr:
  ----------------------------------------------
                    Demanda    Altura   Presión
  Nudo                  gpm        ft       psi
  ----------------------------------------------
  node0                0.01     16.78      7.27
  tank0               -0.01     18.81      3.82  Depósito
   
   
  Resultados en las Líneas a las 46:25:00 hr:
  ----------------------------------------------
                     Caudal     Veloc   Pérdida
  Línea                 gpm       fps   /1000ft
  ----------------------------------------------
  pipe0                0.01      0.41     14.34
   
   
  Resultados en los Nudos a las 46:30:00 hr:
  ----------------------------------------------
                    Demanda    Altura   Presión
  Nudo                  gpm        ft       psi
  ----------------------------------------------
  node0                0.01     16.78      7.27
  tank0               -0.01     18.81      3.82  Depósito
   
   
  Resultados en las Líneas a las 46:30:00 hr:
  ----------------------------------------------
                     Caudal     Veloc   Pérdida
  Línea                 gpm       fps   /1000ft
  ----------------------------------------------
  pipe0                0.01      0.41     14.34
   
   
  Resultados en los Nudos a las 46:35:00 hr:
  ----------------------------------------------
                    Demanda    Altura   Presión
  Nudo                  gpm        ft       psi
  ----------------------------------------------
  node0                0.01     16.78      7.27
  tank0               -0.01     18.81      3.82  Depósito
   
   
  Resultados en las Líneas a las 46:35:00 hr:
  ----------------------------------------------
                     Caudal     Veloc   Pérdida
  Línea                 gpm       fps   /1000ft
  ----------------------------------------------
  pipe0                0.01      0.41     14.34
   
   
  Resultados en los Nudos a las 46:40:00 hr:
  ----------------------------------------------
                    Demanda    Altura   Presión
  Nudo                  gpm        ft       psi
  ----------------------------------------------
  node0                0.01     16.78      7.27
  tank0               -0.01     18.81      3.82  Depósito
   
   
  Resultados en las Líneas a las 46:40:00 hr:
  ----------------------------------------------
                     Caudal     Veloc   Pérdida
  Línea                 gpm       fps   /1000ft
  ----------------------------------------------
  pipe0                0.01      0.41     14.34
   
   
  Resultados en los Nudos a las 46:45:00 hr:
  ----------------------------------------------
                    Demanda    Altura   Presión
  Nudo                  gpm        ft       psi
  ----------------------------------------------
  node0                0.01     16.78      7.27
  tank0               -0.01     18.81      3.82  Depósito
   
   
  Resultados en las Líneas a las 46:45:00 hr:
  ----------------------------------------------
                     Caudal     Veloc   Pérdida
  Línea                 gpm       fps   /1000ft
  ----------------------------------------------
  pipe0                0.01      0.41     14.34
   
   
  Resultados en los Nudos a las 46:50:00 hr:
  ----------------------------------------------
                    Demanda    Altura   Presión
  Nudo                  gpm        ft       psi
  ----------------------------------------------
  node0                0.01     16.78      7.27
  tank0               -0.01     18.81      3.82  Depósito
   
   
  Resultados en las Líneas a las 46:50:00 hr:
  ----------------------------------------------
                     Caudal     Veloc   Pérdida
  Línea                 gpm       fps   /1000ft
  ----------------------------------------------
  pipe0                0.01      0.41     14.34
   
   
  Resultados en los Nudos a las 46:55:00 hr:
  ----------------------------------------------
                    Demanda    Altura   Presión
  Nudo                  gpm        ft       psi
  ----------------------------------------------
  node0                0.01     16.78      7.27
  tank0               -0.01     18.81      3.82  Depósito
   
   
  Resultados en las Líneas a las 46:55:00 hr:
  ----------------------------------------------
                     Caudal     Veloc   Pérdida
  Línea                 gpm       fps   /1000ft
  ----------------------------------------------
  pipe0                0.01      0.41     14.34
   
   
  Resultados en los Nudos a las 47:00:00 hr:
  ----------------------------------------------
                    Demanda    Altura   Presión
  Nudo                  gpm        ft       psi
  ----------------------------------------------
  node0                0.01     16.78      7.27
  tank0               -0.01     18.81      3.82  Depósito
   
   
  Resultados en las Líneas a las 47:00:00 hr:
  ----------------------------------------------
                     Caudal     Veloc   Pérdida
  Línea                 gpm       fps   /1000ft
  ----------------------------------------------
  pipe0                0.01      0.41     14.34
   
   
  Resultados en los Nudos a las 47:05:00 hr:
  ----------------------------------------------
                    Demanda    Altura   Presión
  Nudo                  gpm        ft       psi
  ----------------------------------------------
  node0                0.01     16.78      7.27
  tank0               -0.01     18.81      3.82  Depósito
   
   
  Resultados en las Líneas a las 47:05:00 hr:
  ----------------------------------------------
                     Caudal     Veloc   Pérdida
  Línea                 gpm       fps   /1000ft
  ----------------------------------------------
  pipe0                0.01      0.41     14.34
   
   
  Resultados en los Nudos a las 47:10:00 hr:
  ----------------------------------------------
                    Demanda    Altura   Presión
  Nudo                  gpm        ft       psi
  ----------------------------------------------
  node0                0.01     16.78      7.27
  tank0               -0.01     18.81      3.82  Depósito
   
   
  Resultados en las Líneas a las 47:10:00 hr:
  ----------------------------------------------
                     Caudal     Veloc   Pérdida
  Línea                 gpm       fps   /1000ft
  ----------------------------------------------
  pipe0                0.01      0.41     14.34
   
   
  Resultados en los Nudos a las 47:15:00 hr:
  ----------------------------------------------
                    Demanda    Altura   Presión
  Nudo                  gpm        ft       psi
  ----------------------------------------------
  node0                0.01     16.78      7.27
  tank0               -0.01     18.81      3.82  Depósito
   
   
  Resultados en las Líneas a las 47:15:00 hr:
  ----------------------------------------------
                     Caudal     Veloc   Pérdida
  Línea                 gpm       fps   /1000ft
  ----------------------------------------------
  pipe0                0.01      0.41     14.34
   
   
  Resultados en los Nudos a las 47:20:00 hr:
  ----------------------------------------------
                    Demanda    Altura   Presión
  Nudo                  gpm        ft       psi
  ----------------------------------------------
  node0                0.01     16.78      7.27
  tank0               -0.01     18.81      3.82  Depósito
   
   
  Resultados en las Líneas a las 47:20:00 hr:
  ----------------------------------------------
                     Caudal     Veloc   Pérdida
  Línea                 gpm       fps   /1000ft
  ----------------------------------------------
  pipe0                0.01      0.41     14.34
   
   
  Resultados en los Nudos a las 47:25:00 hr:
  ----------------------------------------------
                    Demanda    Altura   Presión
  Nudo                  gpm        ft       psi
  ----------------------------------------------
  node0                0.01     16.78      7.27
  tank0               -0.01     18.81      3.82  Depósito
   
   
  Resultados en las Líneas a las 47:25:00 hr:
  ----------------------------------------------
                     Caudal     Veloc   Pérdida
  Línea                 gpm       fps   /1000ft
  ----------------------------------------------
  pipe0                0.01      0.41     14.34
   
   
  Resultados en los Nudos a las 47:30:00 hr:
  ----------------------------------------------
                    Demanda    Altura   Presión
  Nudo                  gpm        ft       psi
  ----------------------------------------------
  node0                0.01     16.78      7.27
  tank0               -0.01     18.81      3.82  Depósito
   
   
  Resultados en las Líneas a las 47:30:00 hr:
  ----------------------------------------------
                     Caudal     Veloc   Pérdida
  Línea                 gpm       fps   /1000ft
  ----------------------------------------------
  pipe0                0.01      0.41     14.34
   
   
  Resultados en los Nudos a las 47:35:00 hr:
  ----------------------------------------------
                    Demanda    Altura   Presión
  Nudo                  gpm        ft       psi
  ----------------------------------------------
  node0                0.01     16.78      7.27
  tank0               -0.01     18.81      3.82  Depósito
   
   
  Resultados en las Líneas a las 47:35:00 hr:
  ----------------------------------------------
                     Caudal     Veloc   Pérdida
  Línea                 gpm       fps   /1000ft
  ----------------------------------------------
  pipe0                0.01      0.41     14.34
   
   
  Resultados en los Nudos a las 47:40:00 hr:
  ----------------------------------------------
                    Demanda    Altura   Presión
  Nudo                  gpm        ft       psi
  ----------------------------------------------
  node0                0.01     16.78      7.27
  tank0               -0.01     18.81      3.82  Depósito
   
   
  Resultados en las Líneas a las 47:40:00 hr:
  ----------------------------------------------
                     Caudal     Veloc   Pérdida
  Línea                 gpm       fps   /1000ft
  ----------------------------------------------
  pipe0                0.01      0.41     14.34
   
   
  Resultados en los Nudos a las 47:45:00 hr:
  ----------------------------------------------
                    Demanda    Altura   Presión
  Nudo                  gpm        ft       psi
  ----------------------------------------------
  node0                0.01     16.78      7.27
  tank0               -0.01     18.80      3.82  Depósito
   
   
  Resultados en las Líneas a las 47:45:00 hr:
  ----------------------------------------------
                     Caudal     Veloc   Pérdida
  Línea                 gpm       fps   /1000ft
  ----------------------------------------------
  pipe0                0.01      0.41     14.34
   
   
  Resultados en los Nudos a las 47:50:00 hr:
  ----------------------------------------------
                    Demanda    Altura   Presión
  Nudo                  gpm        ft       psi
  ----------------------------------------------
  node0                0.01     16.78      7.27
  tank0               -0.01     18.80      3.82  Depósito
   
   
  Resultados en las Líneas a las 47:50:00 hr:
  ----------------------------------------------
                     Caudal     Veloc   Pérdida
  Línea                 gpm       fps   /1000ft
  ----------------------------------------------
  pipe0                0.01      0.41     14.34
   
   
  Resultados en los Nudos a las 47:55:00 hr:
  ----------------------------------------------
                    Demanda    Altura   Presión
  Nudo                  gpm        ft       psi
  ----------------------------------------------
  node0                0.01     16.78      7.27
  tank0               -0.01     18.80      3.81  Depósito
   
   
  Resultados en las Líneas a las 47:55:00 hr:
  ----------------------------------------------
                     Caudal     Veloc   Pérdida
  Línea                 gpm       fps   /1000ft
  ----------------------------------------------
  pipe0                0.01      0.41     14.34
   
   
  Resultados en los Nudos a las 48:00:00 hr:
  ----------------------------------------------
                    Demanda    Altura   Presión
  Nudo                  gpm        ft       psi
  ----------------------------------------------
  node0                0.01     16.78      7.27
  tank0               -0.01     18.80      3.81  Depósito
   
   
  Resultados en las Líneas a las 48:00:00 hr:
  ----------------------------------------------
                     Caudal     Veloc   Pérdida
  Línea                 gpm       fps   /1000ft
  ----------------------------------------------
  pipe0                0.01      0.41     14.34
   
  Día y hora de finalización del análisis: Fri¨¨B 06 ¨¨BJun¨¨B 2014 a las 11:¨¨B59:¨¨B07